
Note: No compatibility mode selected!


Circuit: current-steering dac 6-bit inl

Doing analysis at TEMP = 27.000000 and TNOM = 27.000000

Using SPARSE 1.3 as Direct Linear Solver

No. of Data Rows : 1
Doing analysis at TEMP = 27.000000 and TNOM = 27.000000

Using SPARSE 1.3 as Direct Linear Solver

No. of Data Rows : 1
	Node                                  Voltage
	----                                  -------
	----	-------
	m.xdac1.xmb1.xm.msky130_fd_pr__pfet_01v8_lvt#sbody   1.500000e+00
	m.xdac1.xmb1.xm.msky130_fd_pr__pfet_01v8_lvt#body   1.500000e+00
	m.xdac1.xmb1.xm.msky130_fd_pr__pfet_01v8_lvt#dbody   1.500000e+00
	m.xdac1.xmb2.xm.msky130_fd_pr__pfet_01v8_lvt#sbody   1.500000e+00
	m.xdac1.xmb2.xm.msky130_fd_pr__pfet_01v8_lvt#body   1.500000e+00
	m.xdac1.xmb2.xm.msky130_fd_pr__pfet_01v8_lvt#dbody   1.500000e+00
	m.xdac1.xdc1.xm1.xm.msky130_fd_pr__pfet_01v8_lvt#sbody   1.500000e+00
	m.xdac1.xdc1.xm1.xm.msky130_fd_pr__pfet_01v8_lvt#body   1.500000e+00
	m.xdac1.xdc1.xm1.xm.msky130_fd_pr__pfet_01v8_lvt#dbody   1.500000e+00
	m.xdac1.xdc1.xm2p.xm.msky130_fd_pr__pfet_01v8_lvt#sbody   1.500000e+00
	m.xdac1.xdc1.xm2p.xm.msky130_fd_pr__pfet_01v8_lvt#body   1.500000e+00
	m.xdac1.xdc1.xm2p.xm.msky130_fd_pr__pfet_01v8_lvt#dbody   1.500000e+00
	m.xdac1.xdc1.xm2n.xm.msky130_fd_pr__pfet_01v8_lvt#sbody   1.500000e+00
	m.xdac1.xdc1.xm2n.xm.msky130_fd_pr__pfet_01v8_lvt#body   1.500000e+00
	m.xdac1.xdc1.xm2n.xm.msky130_fd_pr__pfet_01v8_lvt#dbody   1.500000e+00
	m.xdac1.xdc2.xm1.xm.msky130_fd_pr__pfet_01v8_lvt#sbody   1.500000e+00
	m.xdac1.xdc2.xm1.xm.msky130_fd_pr__pfet_01v8_lvt#body   1.500000e+00
	m.xdac1.xdc2.xm1.xm.msky130_fd_pr__pfet_01v8_lvt#dbody   1.500000e+00
	m.xdac1.xdc2.xm2p.xm.msky130_fd_pr__pfet_01v8_lvt#sbody   1.500000e+00
	m.xdac1.xdc2.xm2p.xm.msky130_fd_pr__pfet_01v8_lvt#body   1.500000e+00
	m.xdac1.xdc2.xm2p.xm.msky130_fd_pr__pfet_01v8_lvt#dbody   1.500000e+00
	m.xdac1.xdc2.xm2n.xm.msky130_fd_pr__pfet_01v8_lvt#sbody   1.500000e+00
	m.xdac1.xdc2.xm2n.xm.msky130_fd_pr__pfet_01v8_lvt#body   1.500000e+00
	m.xdac1.xdc2.xm2n.xm.msky130_fd_pr__pfet_01v8_lvt#dbody   1.500000e+00
	m.xdac1.xdc3.xm1.xm.msky130_fd_pr__pfet_01v8_lvt#sbody   1.500000e+00
	m.xdac1.xdc3.xm1.xm.msky130_fd_pr__pfet_01v8_lvt#body   1.500000e+00
	m.xdac1.xdc3.xm1.xm.msky130_fd_pr__pfet_01v8_lvt#dbody   1.500000e+00
	m.xdac1.xdc3.xm2p.xm.msky130_fd_pr__pfet_01v8_lvt#sbody   1.500000e+00
	m.xdac1.xdc3.xm2p.xm.msky130_fd_pr__pfet_01v8_lvt#body   1.500000e+00
	m.xdac1.xdc3.xm2p.xm.msky130_fd_pr__pfet_01v8_lvt#dbody   1.500000e+00
	m.xdac1.xdc3.xm2n.xm.msky130_fd_pr__pfet_01v8_lvt#sbody   1.500000e+00
	m.xdac1.xdc3.xm2n.xm.msky130_fd_pr__pfet_01v8_lvt#body   1.500000e+00
	m.xdac1.xdc3.xm2n.xm.msky130_fd_pr__pfet_01v8_lvt#dbody   1.500000e+00
	m.xdac1.xdc4.xm1.xm.msky130_fd_pr__pfet_01v8_lvt#sbody   1.500000e+00
	m.xdac1.xdc4.xm1.xm.msky130_fd_pr__pfet_01v8_lvt#body   1.500000e+00
	m.xdac1.xdc4.xm1.xm.msky130_fd_pr__pfet_01v8_lvt#dbody   1.500000e+00
	m.xdac1.xdc4.xm2p.xm.msky130_fd_pr__pfet_01v8_lvt#sbody   1.500000e+00
	m.xdac1.xdc4.xm2p.xm.msky130_fd_pr__pfet_01v8_lvt#body   1.500000e+00
	m.xdac1.xdc4.xm2p.xm.msky130_fd_pr__pfet_01v8_lvt#dbody   1.500000e+00
	m.xdac1.xdc4.xm2n.xm.msky130_fd_pr__pfet_01v8_lvt#sbody   1.500000e+00
	m.xdac1.xdc4.xm2n.xm.msky130_fd_pr__pfet_01v8_lvt#body   1.500000e+00
	m.xdac1.xdc4.xm2n.xm.msky130_fd_pr__pfet_01v8_lvt#dbody   1.500000e+00
	m.xdac1.xdc5.xm1.xm.msky130_fd_pr__pfet_01v8_lvt#sbody   1.500000e+00
	m.xdac1.xdc5.xm1.xm.msky130_fd_pr__pfet_01v8_lvt#body   1.500000e+00
	m.xdac1.xdc5.xm1.xm.msky130_fd_pr__pfet_01v8_lvt#dbody   1.500000e+00
	m.xdac1.xdc5.xm2p.xm.msky130_fd_pr__pfet_01v8_lvt#sbody   1.500000e+00
	m.xdac1.xdc5.xm2p.xm.msky130_fd_pr__pfet_01v8_lvt#body   1.500000e+00
	m.xdac1.xdc5.xm2p.xm.msky130_fd_pr__pfet_01v8_lvt#dbody   1.500000e+00
	m.xdac1.xdc5.xm2n.xm.msky130_fd_pr__pfet_01v8_lvt#sbody   1.500000e+00
	m.xdac1.xdc5.xm2n.xm.msky130_fd_pr__pfet_01v8_lvt#body   1.500000e+00
	m.xdac1.xdc5.xm2n.xm.msky130_fd_pr__pfet_01v8_lvt#dbody   1.500000e+00
	m.xdac1.xdc6.xm1.xm.msky130_fd_pr__pfet_01v8_lvt#sbody   1.500000e+00
	m.xdac1.xdc6.xm1.xm.msky130_fd_pr__pfet_01v8_lvt#body   1.500000e+00
	m.xdac1.xdc6.xm1.xm.msky130_fd_pr__pfet_01v8_lvt#dbody   1.500000e+00
	m.xdac1.xdc6.xm2p.xm.msky130_fd_pr__pfet_01v8_lvt#sbody   1.500000e+00
	m.xdac1.xdc6.xm2p.xm.msky130_fd_pr__pfet_01v8_lvt#body   1.500000e+00
	m.xdac1.xdc6.xm2p.xm.msky130_fd_pr__pfet_01v8_lvt#dbody   1.500000e+00
	m.xdac1.xdc6.xm2n.xm.msky130_fd_pr__pfet_01v8_lvt#sbody   1.500000e+00
	m.xdac1.xdc6.xm2n.xm.msky130_fd_pr__pfet_01v8_lvt#body   1.500000e+00
	m.xdac1.xdc6.xm2n.xm.msky130_fd_pr__pfet_01v8_lvt#dbody   1.500000e+00
	m.xdac2.xmb1.xm.msky130_fd_pr__pfet_01v8_lvt#sbody   1.500000e+00
	m.xdac2.xmb1.xm.msky130_fd_pr__pfet_01v8_lvt#body   1.500000e+00
	m.xdac2.xmb1.xm.msky130_fd_pr__pfet_01v8_lvt#dbody   1.500000e+00
	m.xdac2.xmb2.xm.msky130_fd_pr__pfet_01v8_lvt#sbody   1.500000e+00
	m.xdac2.xmb2.xm.msky130_fd_pr__pfet_01v8_lvt#body   1.500000e+00
	m.xdac2.xmb2.xm.msky130_fd_pr__pfet_01v8_lvt#dbody   1.500000e+00
	m.xdac2.xdc1.xm1.xm.msky130_fd_pr__pfet_01v8_lvt#sbody   1.500000e+00
	m.xdac2.xdc1.xm1.xm.msky130_fd_pr__pfet_01v8_lvt#body   1.500000e+00
	m.xdac2.xdc1.xm1.xm.msky130_fd_pr__pfet_01v8_lvt#dbody   1.500000e+00
	m.xdac2.xdc1.xm2p.xm.msky130_fd_pr__pfet_01v8_lvt#sbody   1.500000e+00
	m.xdac2.xdc1.xm2p.xm.msky130_fd_pr__pfet_01v8_lvt#body   1.500000e+00
	m.xdac2.xdc1.xm2p.xm.msky130_fd_pr__pfet_01v8_lvt#dbody   1.500000e+00
	m.xdac2.xdc1.xm2n.xm.msky130_fd_pr__pfet_01v8_lvt#sbody   1.500000e+00
	m.xdac2.xdc1.xm2n.xm.msky130_fd_pr__pfet_01v8_lvt#body   1.500000e+00
	m.xdac2.xdc1.xm2n.xm.msky130_fd_pr__pfet_01v8_lvt#dbody   1.500000e+00
	m.xdac2.xdc2.xm1.xm.msky130_fd_pr__pfet_01v8_lvt#sbody   1.500000e+00
	m.xdac2.xdc2.xm1.xm.msky130_fd_pr__pfet_01v8_lvt#body   1.500000e+00
	m.xdac2.xdc2.xm1.xm.msky130_fd_pr__pfet_01v8_lvt#dbody   1.500000e+00
	m.xdac2.xdc2.xm2p.xm.msky130_fd_pr__pfet_01v8_lvt#sbody   1.500000e+00
	m.xdac2.xdc2.xm2p.xm.msky130_fd_pr__pfet_01v8_lvt#body   1.500000e+00
	m.xdac2.xdc2.xm2p.xm.msky130_fd_pr__pfet_01v8_lvt#dbody   1.500000e+00
	m.xdac2.xdc2.xm2n.xm.msky130_fd_pr__pfet_01v8_lvt#sbody   1.500000e+00
	m.xdac2.xdc2.xm2n.xm.msky130_fd_pr__pfet_01v8_lvt#body   1.500000e+00
	m.xdac2.xdc2.xm2n.xm.msky130_fd_pr__pfet_01v8_lvt#dbody   1.500000e+00
	m.xdac2.xdc3.xm1.xm.msky130_fd_pr__pfet_01v8_lvt#sbody   1.500000e+00
	m.xdac2.xdc3.xm1.xm.msky130_fd_pr__pfet_01v8_lvt#body   1.500000e+00
	m.xdac2.xdc3.xm1.xm.msky130_fd_pr__pfet_01v8_lvt#dbody   1.500000e+00
	m.xdac2.xdc3.xm2p.xm.msky130_fd_pr__pfet_01v8_lvt#sbody   1.500000e+00
	m.xdac2.xdc3.xm2p.xm.msky130_fd_pr__pfet_01v8_lvt#body   1.500000e+00
	m.xdac2.xdc3.xm2p.xm.msky130_fd_pr__pfet_01v8_lvt#dbody   1.500000e+00
	m.xdac2.xdc3.xm2n.xm.msky130_fd_pr__pfet_01v8_lvt#sbody   1.500000e+00
	m.xdac2.xdc3.xm2n.xm.msky130_fd_pr__pfet_01v8_lvt#body   1.500000e+00
	m.xdac2.xdc3.xm2n.xm.msky130_fd_pr__pfet_01v8_lvt#dbody   1.500000e+00
	m.xdac2.xdc4.xm1.xm.msky130_fd_pr__pfet_01v8_lvt#sbody   1.500000e+00
	m.xdac2.xdc4.xm1.xm.msky130_fd_pr__pfet_01v8_lvt#body   1.500000e+00
	m.xdac2.xdc4.xm1.xm.msky130_fd_pr__pfet_01v8_lvt#dbody   1.500000e+00
	m.xdac2.xdc4.xm2p.xm.msky130_fd_pr__pfet_01v8_lvt#sbody   1.500000e+00
	m.xdac2.xdc4.xm2p.xm.msky130_fd_pr__pfet_01v8_lvt#body   1.500000e+00
	m.xdac2.xdc4.xm2p.xm.msky130_fd_pr__pfet_01v8_lvt#dbody   1.500000e+00
	m.xdac2.xdc4.xm2n.xm.msky130_fd_pr__pfet_01v8_lvt#sbody   1.500000e+00
	m.xdac2.xdc4.xm2n.xm.msky130_fd_pr__pfet_01v8_lvt#body   1.500000e+00
	m.xdac2.xdc4.xm2n.xm.msky130_fd_pr__pfet_01v8_lvt#dbody   1.500000e+00
	m.xdac2.xdc5.xm1.xm.msky130_fd_pr__pfet_01v8_lvt#sbody   1.500000e+00
	m.xdac2.xdc5.xm1.xm.msky130_fd_pr__pfet_01v8_lvt#body   1.500000e+00
	m.xdac2.xdc5.xm1.xm.msky130_fd_pr__pfet_01v8_lvt#dbody   1.500000e+00
	m.xdac2.xdc5.xm2p.xm.msky130_fd_pr__pfet_01v8_lvt#sbody   1.500000e+00
	m.xdac2.xdc5.xm2p.xm.msky130_fd_pr__pfet_01v8_lvt#body   1.500000e+00
	m.xdac2.xdc5.xm2p.xm.msky130_fd_pr__pfet_01v8_lvt#dbody   1.500000e+00
	m.xdac2.xdc5.xm2n.xm.msky130_fd_pr__pfet_01v8_lvt#sbody   1.500000e+00
	m.xdac2.xdc5.xm2n.xm.msky130_fd_pr__pfet_01v8_lvt#body   1.500000e+00
	m.xdac2.xdc5.xm2n.xm.msky130_fd_pr__pfet_01v8_lvt#dbody   1.500000e+00
	m.xdac2.xdc6.xm1.xm.msky130_fd_pr__pfet_01v8_lvt#sbody   1.500000e+00
	m.xdac2.xdc6.xm1.xm.msky130_fd_pr__pfet_01v8_lvt#body   1.500000e+00
	m.xdac2.xdc6.xm1.xm.msky130_fd_pr__pfet_01v8_lvt#dbody   1.500000e+00
	m.xdac2.xdc6.xm2p.xm.msky130_fd_pr__pfet_01v8_lvt#sbody   1.500000e+00
	m.xdac2.xdc6.xm2p.xm.msky130_fd_pr__pfet_01v8_lvt#body   1.500000e+00
	m.xdac2.xdc6.xm2p.xm.msky130_fd_pr__pfet_01v8_lvt#dbody   1.500000e+00
	m.xdac2.xdc6.xm2n.xm.msky130_fd_pr__pfet_01v8_lvt#sbody   1.500000e+00
	m.xdac2.xdc6.xm2n.xm.msky130_fd_pr__pfet_01v8_lvt#body   1.500000e+00
	m.xdac2.xdc6.xm2n.xm.msky130_fd_pr__pfet_01v8_lvt#dbody   1.500000e+00
	out                              0.000000e+00
	out2                             7.990057e-05
	out1                             8.787169e-05
	b26                              1.500000e+00
	bb26                             0.000000e+00
	xdac2.xdc6.d1                    7.697351e-01
	b25                              1.500000e+00
	bb25                             0.000000e+00
	xdac2.xdc5.d1                    7.679672e-01
	b24                              1.500000e+00
	bb24                             0.000000e+00
	xdac2.xdc4.d1                    8.023140e-01
	b23                              1.500000e+00
	bb23                             0.000000e+00
	xdac2.xdc3.d1                    7.546982e-01
	b22                              1.500000e+00
	bb22                             0.000000e+00
	xdac2.xdc2.d1                    7.478564e-01
	b21                              1.500000e+00
	outn2                            1.384662e-16
	bb21                             0.000000e+00
	outp2                            7.990057e-06
	xdac2.xdc1.d1                    8.262496e-01
	xdac2.bp                         8.256742e-01
	b16                              1.500000e+00
	bb16                             0.000000e+00
	xdac1.xdc6.d1                    7.803012e-01
	b15                              1.500000e+00
	bb15                             0.000000e+00
	xdac1.xdc5.d1                    7.884340e-01
	b14                              1.500000e+00
	bb14                             0.000000e+00
	xdac1.xdc4.d1                    7.770414e-01
	b13                              1.500000e+00
	bb13                             0.000000e+00
	xdac1.xdc3.d1                    8.006080e-01
	b12                              1.500000e+00
	bb12                             0.000000e+00
	xdac1.xdc2.d1                    8.048606e-01
	b11                              1.500000e+00
	outn1                            1.384699e-16
	bb11                             0.000000e+00
	outp1                            8.787169e-06
	xdac1.xdc1.d1                    7.554154e-01
	xdac1.bp                         7.968967e-01
	vdd                              1.500000e+00

	Source	Current
	------	-------

	vdd#branch                       -8.53529e-04
	vb11#branch                      0.000000e+00
	vb12#branch                      0.000000e+00
	vb13#branch                      0.000000e+00
	vb14#branch                      0.000000e+00
	vb15#branch                      0.000000e+00
	vb16#branch                      0.000000e+00
	vbb11#branch                     0.000000e+00
	vbb12#branch                     0.000000e+00
	vbb13#branch                     0.000000e+00
	vbb14#branch                     0.000000e+00
	vbb15#branch                     0.000000e+00
	vbb16#branch                     0.000000e+00
	vb21#branch                      0.000000e+00
	vb22#branch                      0.000000e+00
	vb23#branch                      0.000000e+00
	vb24#branch                      0.000000e+00
	vb25#branch                      0.000000e+00
	vb26#branch                      0.000000e+00
	vbb21#branch                     0.000000e+00
	vbb22#branch                     0.000000e+00
	vbb23#branch                     0.000000e+00
	vbb24#branch                     0.000000e+00
	vbb25#branch                     0.000000e+00
	vbb26#branch                     0.000000e+00
	e1#branch                        -8.78717e-08
	e2#branch                        0.000000e+00

 BSIM4v5 models (Berkeley Short Channel IGFET Model-4)
      model xdac2.xdc6.xm2n.xm:sk xdac2.xdc6.xm2p.xm:sk xdac2.xdc6.xm1.xm:sky

     capmod                     2                     2                     2
     diomod                     1                     1                     1
     rdsmod                     0                     0                     0
   trnqsmod                     0                     0                     0
   acnqsmod                     0                     0                     0
     mobmod                     0                     0                     0
   rbodymod                     1                     1                     1
   rgatemod                     0                     0                     0
     permod                     1                     1                     1
     geomod                     0                     0                     0
    rgeomod                     0                     0                     0
    fnoimod                     1                     1                     1
    tnoimod                     1                     1                     1
     igcmod                     0                     0                     0
     igbmod                     0                     0                     0
    tempmod                     0                     0                     0
   paramchk                     1                     1                     1
    binunit                     2                     2                     2
    version                   4.5                   4.5                   4.5
       toxe           4.25816e-09           4.23952e-09           4.21905e-09
       toxp           4.25816e-09           4.23952e-09           4.21905e-09
       toxm              4.23e-09              4.23e-09              4.23e-09
     toxref              4.23e-09              4.23e-09              4.23e-09
       dtox                     0                     0                     0
     epsrox                   3.9                   3.9                   3.9
       cdsc            2.8125e-07            2.8125e-07            2.8125e-07
      cdscb                0.0001                0.0001                0.0001
      cdscd                 1e-10                 1e-10                 1e-10
        cit          -6.39311e-11          -6.39311e-11          -6.39311e-11
    nfactor                2.5373                2.5373                2.5373
         xj               1.5e-07               1.5e-07               1.5e-07
       vsat                172919                172919                172919
         at              -44339.5              -44339.5              -44339.5
         a0                1.1627                1.1627                1.1627
        ags             -0.744608             -0.744608             -0.744608
         a1                     0                     0                     0
         a2              0.467037              0.467037              0.467037
       keta            -0.0172723            -0.0172723            -0.0172723
       nsub                 6e+16                 6e+16                 6e+16
       ndep               1.7e+17               1.7e+17               1.7e+17
        nsd                 1e+20                 1e+20                 1e+20
       phin                     0                     0                     0
      ngate                 1e+23                 1e+23                 1e+23
     gamma1                     0                     0                     0
     gamma2                     0                     0                     0
        vbx                     0                     0                     0
        vbm                    -3                    -3                    -3
         xt              1.55e-07              1.55e-07              1.55e-07
         k1               0.64774               0.64774               0.64774
        kt1             -0.792437             -0.792437             -0.792437
       kt1l                     0                     0                     0
        kt2              0.162602              0.162602              0.162602
         k2            -0.0469552            -0.0469552            -0.0469552
         k3                  3.39                  3.39                  3.39
        k3b                     1                     1                     1
         w0                 1e-08                 1e-08                 1e-08
      dvtp0                     0                     0                     0
      dvtp1                     0                     0                     0
       lpe0                     0                     0                     0
       lpeb                     0                     0                     0
       dvt0                2.4422                2.4422                2.4422
       dvt1               0.16136               0.16136               0.16136
       dvt2              0.026237              0.026237              0.026237
      dvt0w                   0.5                   0.5                   0.5
      dvt1w            1.9281e+06            1.9281e+06            1.9281e+06
      dvt2w                -0.032                -0.032                -0.032
      drout               0.43496               0.43496               0.43496
       dsub                     1                     1                     1
       vth0             -0.177177             -0.179606             -0.172381
         ua          -3.07668e-09          -3.07668e-09          -3.07668e-09
        ua1           1.97265e-09           1.97265e-09           1.97265e-09
         ub           2.61299e-18           2.61299e-18           2.61299e-18
        ub1          -2.95573e-18          -2.95573e-18          -2.95573e-18
         uc           1.60739e-11           1.60739e-11           1.60739e-11
        uc1          -1.64274e-10          -1.64274e-10          -1.64274e-10
         ud                     0                     0                     0
        ud1                     0                     0                     0
         up                     0                     0                     0
         lp                     1                     1                     1
         u0           0.000933531           0.000933531           0.000933531
         eu                  1.67                  1.67                  1.67
        ute             -0.812741             -0.812741             -0.812741
       voff               -0.1819               -0.1819               -0.1819
       minv                     0                     0                     0
      voffl                     0                     0                     0
       tnom                303.15                303.15                303.15
       cgso                 2e-11                 2e-11                 2e-11
       cgdo                 2e-11                 2e-11                 2e-11
       cgbo                 1e-13                 1e-13                 1e-13
      xpart                     0                     0                     0
      delta              0.150991              0.150991              0.150991
        rsh                     1                     1                     1
       rdsw                 484.7                 484.7                 484.7
    rdswmin                     0                     0                     0
        rsw                     0                     0                     0
        rdw                     0                     0                     0
     rdwmin                     0                     0                     0
     rswmin                     0                     0                     0
       prwg                 0.052                 0.052                 0.052
       prwb                   0.1                   0.1                   0.1
        prt                     0                     0                     0
       eta0                   0.2                   0.2                   0.2
       etab              -0.00025              -0.00025              -0.00025
       pclm              0.030097              0.030097              0.030097
    pdiblc1                     0                     0                     0
    pdiblc2           -0.00270378           -0.00270378           -0.00270378
    pdiblcb                -0.025                -0.025                -0.025
     fprout                     0                     0                     0
      pdits                     0                     0                     0
     pditsl                     0                     0                     0
     pditsd                     0                     0                     0
     pscbe1                 8e+08                 8e+08                 8e+08
     pscbe2            8.6797e-09            8.6797e-09            8.6797e-09
       pvag                     0                     0                     0
        jss            2.1483e-05            2.1483e-05            2.1483e-05
       jsws            1.4472e-10            1.4472e-10            1.4472e-10
      jswgs                     0                     0                     0
        pbs                0.6587                0.6587                0.6587
        njs                1.3632                1.3632                1.3632
       xtis                   5.2                   5.2                   5.2
        mjs                0.3362                0.3362                0.3362
      pbsws                0.7418                0.7418                0.7418
      mjsws                0.2659                0.2659                0.2659
     pbswgs                1.4338                1.4338                1.4338
     mjswgs                0.9274                0.9274                0.9274
        cjs           0.000765357           0.000765357           0.000765357
      cjsws           9.16024e-11           9.16024e-11           9.16024e-11
     cjswgs           2.39155e-10           2.39155e-10           2.39155e-10
        jsd            2.1483e-05            2.1483e-05            2.1483e-05
       jswd            1.4472e-10            1.4472e-10            1.4472e-10
      jswgd                     0                     0                     0
        pbd                0.6587                0.6587                0.6587
        njd                1.3632                1.3632                1.3632
       xtid                   5.2                   5.2                   5.2
        mjd                0.3362                0.3362                0.3362
      pbswd                0.7418                0.7418                0.7418
      mjswd                0.2659                0.2659                0.2659
     pbswgd                1.4338                1.4338                1.4338
     mjswgd                0.9274                0.9274                0.9274
        cjd           0.000765357           0.000765357           0.000765357
      cjswd           9.16024e-11           9.16024e-11           9.16024e-11
     cjswgd           2.39155e-10           2.39155e-10           2.39155e-10
      vfbcv                    -1                    -1                    -1
        vfb                     0                     0                     0
        tpb              0.001671              0.001671              0.001671
        tcj             0.0012407             0.0012407             0.0012407
      tpbsw              0.001246              0.001246              0.001246
      tcjsw            0.00037357            0.00037357            0.00037357
     tpbswg                     0                     0                     0
     tcjswg                 2e-12                 2e-12                 2e-12
       acde                  0.44                  0.44                  0.44
       moin                   8.7                   8.7                   8.7
       noff                2.6123                2.6123                2.6123
     voffcv                 0.112                 0.112                 0.112
       dmcg                     0                     0                     0
       dmci                     0                     0                     0
       dmdg                     0                     0                     0
      dmcgt                     0                     0                     0
        xgw                     0                     0                     0
        xgl                     0                     0                     0
       rshg                   0.1                   0.1                   0.1
      ngcon                     1                     1                     1
     xrcrg1                    12                    12                    12
     xrcrg2                     1                     1                     1
     lambda                     0                     0                     0
        vtl                     0                     0                     0
         lc                 5e-09                 5e-09                 5e-09
         xn                     3                     3                     3
   vfbsdoff                     0                     0                     0
  tvfbsdoff                     0                     0                     0
      tvoff                     0                     0                     0
    lintnoi <<NAN, error = 7>> <<NAN, error = 7>> <<NAN, error = 7>>
       lint               2.8e-09               2.8e-09               2.8e-09
         ll                     0                     0                     0
        llc                     0                     0                     0
        lln                     1                     1                     1
         lw                     0                     0                     0
        lwc                     0                     0                     0
        lwn                     1                     1                     1
        lwl                     0                     0                     0
       lwlc                     0                     0                     0
       lmin               3.5e-07               3.5e-07               3.5e-07
       lmax                 5e-07                 5e-07                 5e-07
         wr                     1                     1                     1
       wint             7.476e-09             7.476e-09             7.476e-09
        dwg            -7.916e-09            -7.916e-09            -7.916e-09
        dwb                     0                     0                     0
         wl                     0                     0                     0
        wlc                     0                     0                     0
        wln                     1                     1                     1
         ww                     0                     0                     0
        wwc                     0                     0                     0
        wwn                     1                     1                     1
        wwl                     0                     0                     0
       wwlc                     0                     0                     0
       wmin               5.5e-07               5.5e-07               5.5e-07
       wmax                 1e-06                 1e-06                 1e-06
         b0           7.89468e-07           7.89468e-07           7.89468e-07
         b1           -1.8417e-06           -1.8417e-06           -1.8417e-06
       cgsl                     0                     0                     0
       cgdl                     0                     0                     0
    ckappas                   0.6                   0.6                   0.6
    ckappad                   0.6                   0.6                   0.6
         cf                     0                     0                     0
        clc                 7e-08                 7e-08                 7e-08
        cle                 0.492                 0.492                 0.492
        dwc                     0                     0                     0
        dlc              -1.2e-08              -1.2e-08              -1.2e-08
         xw                     0                     0                     0
         xl                     0                     0                     0
      dlcig                     0                     0                     0
        dwj                     0                     0                     0
     alpha0           5.04495e-13           5.04495e-13           5.04495e-13
     alpha1          -4.05837e-18          -4.05837e-18          -4.05837e-18
      beta0               6.20165               6.20165               6.20165
      agidl                     0                     0                     0
      bgidl               2.3e+09               2.3e+09               2.3e+09
      cgidl                   0.5                   0.5                   0.5
      egidl                   0.8                   0.8                   0.8
       aigc                  0.43                  0.43                  0.43
       bigc                 0.054                 0.054                 0.054
       cigc                 0.075                 0.075                 0.075
      aigsd                  0.43                  0.43                  0.43
      bigsd                 0.054                 0.054                 0.054
      cigsd                 0.075                 0.075                 0.075
    aigbacc                  0.43                  0.43                  0.43
    bigbacc                 0.054                 0.054                 0.054
    cigbacc                 0.075                 0.075                 0.075
    aigbinv                  0.35                  0.35                  0.35
    bigbinv                  0.03                  0.03                  0.03
    cigbinv                 0.006                 0.006                 0.006
       nigc                     1                     1                     1
    nigbinv                     3                     3                     3
    nigbacc                     1                     1                     1
       ntox                     1                     1                     1
    eigbinv                   1.1                   1.1                   1.1
      pigcd                     1                     1                     1
    poxedge                     1                     1                     1
   ijthdfwd                   0.1                   0.1                   0.1
   ijthsfwd                   0.1                   0.1                   0.1
   ijthdrev                   0.1                   0.1                   0.1
   ijthsrev                   0.1                   0.1                   0.1
      xjbvd                     1                     1                     1
      xjbvs                     1                     1                     1
        bvd                 12.69                 12.69                 12.69
        bvs                 12.69                 12.69                 12.69
       jtss                     0                     0                     0
       jtsd                     0                     0                     0
     jtssws                     0                     0                     0
     jtsswd                     0                     0                     0
    jtsswgs                     0                     0                     0
    jtsswgd                     0                     0                     0
       njts                    20                    20                    20
     njtssw                    20                    20                    20
    njtsswg                    20                    20                    20
       xtss                  0.02                  0.02                  0.02
       xtsd                  0.02                  0.02                  0.02
     xtssws                  0.02                  0.02                  0.02
     xtsswd                  0.02                  0.02                  0.02
    xtsswgs                  0.02                  0.02                  0.02
    xtsswgd                  0.02                  0.02                  0.02
      tnjts                     0                     0                     0
    tnjtssw                     0                     0                     0
   tnjtsswg                     0                     0                     0
       vtss                    10                    10                    10
       vtsd                    10                    10                    10
     vtssws                    10                    10                    10
     vtsswd                    10                    10                    10
    vtsswgs                    10                    10                    10
    vtsswgd                    10                    10                    10
      gbmin                 1e-12                 1e-12                 1e-12
       rbdb                    50                    50                    50
       rbpb                    50                    50                    50
       rbsb                    50                    50                    50
       rbps                    50                    50                    50
       rbpd                    50                    50                    50
      rbps0                    50                    50                    50
      rbpsl                     0                     0                     0
      rbpsw                     0                     0                     0
     rbpsnf                     0                     0                     0
      rbpd0                    50                    50                    50
      rbpdl                     0                     0                     0
      rbpdw                     0                     0                     0
     rbpdnf                     0                     0                     0
     rbpbx0                   100                   100                   100
     rbpbxl                     0                     0                     0
     rbpbxw                     0                     0                     0
    rbpbxnf                     0                     0                     0
     rbpby0                   100                   100                   100
     rbpbyl                     0                     0                     0
     rbpbyw                     0                     0                     0
    rbpbynf                     0                     0                     0
     rbsbx0                   100                   100                   100
     rbsby0                   100                   100                   100
     rbdbx0                   100                   100                   100
     rbdby0                   100                   100                   100
    rbsdbxl                     0                     0                     0
    rbsdbxw                     0                     0                     0
   rbsdbxnf                     0                     0                     0
    rbsdbyl                     0                     0                     0
    rbsdbyw                     0                     0                     0
   rbsdbynf                     0                     0                     0
      lcdsc                     0                     0                     0
     lcdscb                     0                     0                     0
     lcdscd                     0                     0                     0
       lcit                     0                     0                     0
   lnfactor                     0                     0                     0
        lxj                     0                     0                     0
      lvsat            -0.0197666            -0.0197666            -0.0197666
        lat             0.0286959             0.0286959             0.0286959
        la0                     0                     0                     0
       lags           3.52307e-07           3.52307e-07           3.52307e-07
        la1                     0                     0                     0
        la2                     0                     0                     0
      lketa           1.87604e-09           1.87604e-09           1.87604e-09
      lnsub                     0                     0                     0
      lndep                     0                     0                     0
       lnsd                     0                     0                     0
      lphin                     0                     0                     0
     lngate                     0                     0                     0
    lgamma1                     0                     0                     0
    lgamma2                     0                     0                     0
       lvbx                     0                     0                     0
       lvbm                     0                     0                     0
        lxt                     0                     0                     0
        lk1                     0                     0                     0
       lkt1           6.08787e-08           6.08787e-08           6.08787e-08
      lkt1l                     0                     0                     0
       lkt2          -8.53909e-08          -8.53909e-08          -8.53909e-08
        lk2           4.07195e-09           4.07195e-09           4.07195e-09
        lk3                     0                     0                     0
       lk3b                     0                     0                     0
        lw0                     0                     0                     0
     ldvtp0                     0                     0                     0
     ldvtp1                     0                     0                     0
      llpe0                     0                     0                     0
      llpeb                     0                     0                     0
      ldvt0                     0                     0                     0
      ldvt1                     0                     0                     0
      ldvt2                     0                     0                     0
     ldvt0w                     0                     0                     0
     ldvt1w                     0                     0                     0
     ldvt2w                     0                     0                     0
     ldrout                     0                     0                     0
      ldsub                     0                     0                     0
      lvth0           -7.2226e-08           -7.2226e-08           -7.2226e-08
        lua           6.22987e-17           6.22987e-17           6.22987e-17
       lua1          -4.30321e-16          -4.30321e-16          -4.30321e-16
        lub           1.90597e-25           1.90597e-25           1.90597e-25
       lub1           9.37891e-25           9.37891e-25           9.37891e-25
        luc           1.38059e-17           1.38059e-17           1.38059e-17
       luc1           6.69078e-17           6.69078e-17           6.69078e-17
        lud                     0                     0                     0
       lud1                     0                     0                     0
        lup                     0                     0                     0
        llp                     0                     0                     0
        lu0           6.55387e-10           6.55387e-10           6.55387e-10
       lute           2.06775e-07           2.06775e-07           2.06775e-07
      lvoff                     0                     0                     0
      lminv                     0                     0                     0
     ldelta          -2.80051e-08          -2.80051e-08          -2.80051e-08
      lrdsw                     0                     0                     0
       lrsw                     0                     0                     0
       lrdw                     0                     0                     0
      lprwg                     0                     0                     0
      lprwb                     0                     0                     0
       lprt                     0                     0                     0
      leta0                     0                     0                     0
      letab                    -0                    -0                    -0
      lpclm                     0                     0                     0
   lpdiblc1                     0                     0                     0
   lpdiblc2           9.64094e-09           9.64094e-09           9.64094e-09
   lpdiblcb                     0                     0                     0
    lfprout                     0                     0                     0
     lpdits                     0                     0                     0
    lpditsd                     0                     0                     0
    lpscbe1                     0                     0                     0
    lpscbe2                     0                     0                     0
      lpvag                     0                     0                     0
        lwr                     0                     0                     0
       ldwg                     0                     0                     0
       ldwb                     0                     0                     0
        lb0           -4.0417e-13           -4.0417e-13           -4.0417e-13
        lb1           7.89471e-13           7.89471e-13           7.89471e-13
      lcgsl                     0                     0                     0
      lcgdl                     0                     0                     0
   lckappas                     0                     0                     0
   lckappad                     0                     0                     0
        lcf                     0                     0                     0
       lclc                     0                     0                     0
       lcle                     0                     0                     0
    lalpha0                     0                     0                     0
    lalpha1                     0                     0                     0
     lbeta0                     0                     0                     0
     lagidl                     0                     0                     0
     lbgidl                     0                     0                     0
     lcgidl                     0                     0                     0
     legidl                     0                     0                     0
      laigc                     0                     0                     0
      lbigc                     0                     0                     0
      lcigc                     0                     0                     0
     laigsd                     0                     0                     0
     lbigsd                     0                     0                     0
     lcigsd                     0                     0                     0
   laigbacc                     0                     0                     0
   lbigbacc                     0                     0                     0
   lcigbacc                     0                     0                     0
   laigbinv                     0                     0                     0
   lbigbinv                     0                     0                     0
   lcigbinv                     0                     0                     0
      lnigc                     0                     0                     0
   lnigbinv                     0                     0                     0
   lnigbacc                     0                     0                     0
      lntox                     0                     0                     0
   leigbinv                     0                     0                     0
     lpigcd                     0                     0                     0
   lpoxedge                     0                     0                     0
     lvfbcv                     0                     0                     0
       lvfb                     0                     0                     0
      lacde                     0                     0                     0
      lmoin                     0                     0                     0
      lnoff                     0                     0                     0
    lvoffcv                     0                     0                     0
    lxrcrg1                     0                     0                     0
    lxrcrg2                     0                     0                     0
    llambda <<NAN, error = 7>> <<NAN, error = 7>> <<NAN, error = 7>>
       lvtl <<NAN, error = 7>> <<NAN, error = 7>> <<NAN, error = 7>>
        lxn <<NAN, error = 7>> <<NAN, error = 7>> <<NAN, error = 7>>
        leu                     0                     0                     0
  lvfbsdoff                     0                     0                     0
 ltvfbsdoff                     0                     0                     0
     ltvoff                     0                     0                     0
      wcdsc                     0                     0                     0
     wcdscb                     0                     0                     0
     wcdscd                     0                     0                     0
       wcit                     0                     0                     0
   wnfactor                     0                     0                     0
        wxj                     0                     0                     0
      wvsat             -0.063004             -0.063004             -0.063004
        wat              0.187499              0.187499              0.187499
        wa0                     0                     0                     0
       wags           9.86593e-07           9.86593e-07           9.86593e-07
        wa1                     0                     0                     0
        wa2                     0                     0                     0
      wketa           2.91455e-09           2.91455e-09           2.91455e-09
      wnsub                     0                     0                     0
      wndep                     0                     0                     0
       wnsd                     0                     0                     0
      wphin                     0                     0                     0
     wngate                     0                     0                     0
    wgamma1                     0                     0                     0
    wgamma2                     0                     0                     0
       wvbx                     0                     0                     0
       wvbm                     0                     0                     0
        wxt                     0                     0                     0
        wk1                     0                     0                     0
       wkt1           1.27607e-07           1.27607e-07           1.27607e-07
      wkt1l                     0                     0                     0
       wkt2           -1.3266e-07           -1.3266e-07           -1.3266e-07
        wk2          -1.04826e-08          -1.04826e-08          -1.04826e-08
        wk3                     0                     0                     0
       wk3b                     0                     0                     0
        ww0                     0                     0                     0
     wdvtp0                     0                     0                     0
     wdvtp1                     0                     0                     0
      wlpe0                     0                     0                     0
      wlpeb                     0                     0                     0
      wdvt0                     0                     0                     0
      wdvt1                     0                     0                     0
      wdvt2                     0                     0                     0
     wdvt0w                     0                     0                     0
     wdvt1w                     0                     0                     0
     wdvt2w                     0                     0                     0
     wdrout                     0                     0                     0
      wdsub                     0                     0                     0
      wvth0          -1.34899e-07          -1.34899e-07          -1.34899e-07
        wua           2.38601e-16           2.38601e-16           2.38601e-16
       wua1          -6.68533e-16          -6.68533e-16          -6.68533e-16
        wub          -8.03643e-26          -8.03643e-26          -8.03643e-26
       wub1           1.37509e-24           1.37509e-24           1.37509e-24
        wuc           4.01526e-17           4.01526e-17           4.01526e-17
       wuc1           1.03946e-16           1.03946e-16           1.03946e-16
        wud                     0                     0                     0
       wud1                     0                     0                     0
        wup                     0                     0                     0
        wlp                     0                     0                     0
        wu0           1.17079e-09           1.17079e-09           1.17079e-09
       wute           5.19369e-07           5.19369e-07           5.19369e-07
      wvoff                     0                     0                     0
      wminv                     0                     0                     0
     wdelta          -6.54511e-08          -6.54511e-08          -6.54511e-08
      wrdsw                     0                     0                     0
       wrsw                     0                     0                     0
       wrdw                     0                     0                     0
      wprwg                     0                     0                     0
      wprwb                     0                     0                     0
       wprt                     0                     0                     0
      weta0                     0                     0                     0
      wetab                     0                     0                     0
      wpclm                     0                     0                     0
   wpdiblc1                     0                     0                     0
   wpdiblc2             -4.49e-08             -4.49e-08             -4.49e-08
   wpdiblcb                     0                     0                     0
    wfprout                     0                     0                     0
     wpdits                     0                     0                     0
    wpditsd                     0                     0                     0
    wpscbe1                     0                     0                     0
    wpscbe2                     0                     0                     0
      wpvag                     0                     0                     0
        wwr                     0                     0                     0
       wdwg                     0                     0                     0
       wdwb                     0                     0                     0
        wb0           -7.3862e-13           -7.3862e-13           -7.3862e-13
        wb1           1.71162e-12           1.71162e-12           1.71162e-12
      wcgsl                     0                     0                     0
      wcgdl                     0                     0                     0
   wckappas                     0                     0                     0
   wckappad                     0                     0                     0
        wcf                     0                     0                     0
       wclc                     0                     0                     0
       wcle                     0                     0                     0
    walpha0                     0                     0                     0
    walpha1                     0                     0                     0
     wbeta0                     0                     0                     0
     wagidl                     0                     0                     0
     wbgidl                     0                     0                     0
     wcgidl                     0                     0                     0
     wegidl                     0                     0                     0
      waigc                     0                     0                     0
      wbigc                     0                     0                     0
      wcigc                     0                     0                     0
     waigsd                     0                     0                     0
     wbigsd                     0                     0                     0
     wcigsd                     0                     0                     0
   waigbacc                     0                     0                     0
   wbigbacc                     0                     0                     0
   wcigbacc                     0                     0                     0
   waigbinv                     0                     0                     0
   wbigbinv                     0                     0                     0
   wcigbinv                     0                     0                     0
      wnigc                     0                     0                     0
   wnigbinv                     0                     0                     0
   wnigbacc                     0                     0                     0
      wntox                     0                     0                     0
   weigbinv                     0                     0                     0
     wpigcd                     0                     0                     0
   wpoxedge                     0                     0                     0
     wvfbcv                     0                     0                     0
       wvfb                     0                     0                     0
      wacde                     0                     0                     0
      wmoin                     0                     0                     0
      wnoff                     0                     0                     0
    wvoffcv                     0                     0                     0
    wxrcrg1                     0                     0                     0
    wxrcrg2                     0                     0                     0
    wlambda <<NAN, error = 7>> <<NAN, error = 7>> <<NAN, error = 7>>
       wvtl <<NAN, error = 7>> <<NAN, error = 7>> <<NAN, error = 7>>
        wxn <<NAN, error = 7>> <<NAN, error = 7>> <<NAN, error = 7>>
        weu                     0                     0                     0
  wvfbsdoff                     0                     0                     0
 wtvfbsdoff                     0                     0                     0
     wtvoff                     0                     0                     0
      pcdsc                     0                     0                     0
     pcdscb                     0                     0                     0
     pcdscd                     0                     0                     0
       pcit                     0                     0                     0
   pnfactor                     0                     0                     0
        pxj                     0                     0                     0
      pvsat           1.73353e-08           1.73353e-08           1.73353e-08
        pat           -6.9808e-08           -6.9808e-08           -6.9808e-08
        pa0                     0                     0                     0
       pags          -3.47039e-13          -3.47039e-13          -3.47039e-13
        pa1                     0                     0                     0
        pa2                     0                     0                     0
      pketa          -1.00377e-15          -1.00377e-15          -1.00377e-15
      pnsub                     0                     0                     0
      pndep                     0                     0                     0
       pnsd                     0                     0                     0
      pphin                     0                     0                     0
     pngate                     0                     0                     0
    pgamma1                     0                     0                     0
    pgamma2                     0                     0                     0
       pvbx                     0                     0                     0
       pvbm                     0                     0                     0
        pxt                     0                     0                     0
        pk1                     0                     0                     0
       pkt1          -4.79816e-14          -4.79816e-14          -4.79816e-14
      pkt1l                     0                     0                     0
       pkt2           4.56882e-14           4.56882e-14           4.56882e-14
        pk2           6.07382e-15           6.07382e-15           6.07382e-15
        pk3                     0                     0                     0
       pk3b                     0                     0                     0
        pw0                     0                     0                     0
     pdvtp0                     0                     0                     0
     pdvtp1                     0                     0                     0
      plpe0                     0                     0                     0
      plpeb                     0                     0                     0
      pdvt0                     0                     0                     0
      pdvt1                     0                     0                     0
      pdvt2                     0                     0                     0
     pdvt0w                     0                     0                     0
     pdvt1w                     0                     0                     0
     pdvt2w                     0                     0                     0
     pdrout                     0                     0                     0
      pdsub                     0                     0                     0
      pvth0           4.95464e-14           4.95464e-14           4.95464e-14
        pua          -1.06094e-22          -1.06094e-22          -1.06094e-22
       pua1           2.30243e-22           2.30243e-22           2.30243e-22
        pub           6.11569e-32           6.11569e-32           6.11569e-32
       pub1          -4.73581e-31          -4.73581e-31          -4.73581e-31
        puc          -1.35994e-23          -1.35994e-23          -1.35994e-23
       puc1          -3.57989e-23          -3.57989e-23          -3.57989e-23
        pud                     0                     0                     0
       pud1                     0                     0                     0
        pup                     0                     0                     0
        plp                     0                     0                     0
        pu0          -4.00582e-16          -4.00582e-16          -4.00582e-16
       pute          -1.78871e-13          -1.78871e-13          -1.78871e-13
      pvoff                     0                     0                     0
      pminv                     0                     0                     0
     pdelta           1.65243e-14           1.65243e-14           1.65243e-14
      prdsw                     0                     0                     0
       prsw                     0                     0                     0
       prdw                     0                     0                     0
      pprwg                     0                     0                     0
      pprwb                     0                     0                     0
       pprt                     0                     0                     0
      peta0                     0                     0                     0
      petab                     0                     0                     0
      ppclm                     0                     0                     0
   ppdiblc1                     0                     0                     0
   ppdiblc2           3.81473e-14           3.81473e-14           3.81473e-14
   ppdiblcb                     0                     0                     0
    pfprout                     0                     0                     0
     ppdits                     0                     0                     0
    ppditsd                     0                     0                     0
    ppscbe1                     0                     0                     0
    ppscbe2                     0                     0                     0
      ppvag                     0                     0                     0
        pwr                     0                     0                     0
       pdwg                     0                     0                     0
       pdwb                     0                     0                     0
        pb0           3.25156e-19           3.25156e-19           3.25156e-19
        pb1          -6.72514e-19          -6.72514e-19          -6.72514e-19
      pcgsl                     0                     0                     0
      pcgdl                     0                     0                     0
   pckappas                     0                     0                     0
   pckappad                     0                     0                     0
        pcf                     0                     0                     0
       pclc                     0                     0                     0
       pcle                     0                     0                     0
    palpha0                     0                     0                     0
    palpha1                     0                     0                     0
     pbeta0                     0                     0                     0
     pagidl                     0                     0                     0
     pbgidl                     0                     0                     0
     pcgidl                     0                     0                     0
     pegidl                     0                     0                     0
      paigc                     0                     0                     0
      pbigc                     0                     0                     0
      pcigc                     0                     0                     0
     paigsd                     0                     0                     0
     pbigsd                     0                     0                     0
     pcigsd                     0                     0                     0
   paigbacc                     0                     0                     0
   pbigbacc                     0                     0                     0
   pcigbacc                     0                     0                     0
   paigbinv                     0                     0                     0
   pbigbinv                     0                     0                     0
   pcigbinv                     0                     0                     0
      pnigc                     0                     0                     0
   pnigbinv                     0                     0                     0
   pnigbacc                     0                     0                     0
      pntox                     0                     0                     0
   peigbinv                     0                     0                     0
     ppigcd                     0                     0                     0
   ppoxedge                     0                     0                     0
     pvfbcv                     0                     0                     0
       pvfb                     0                     0                     0
      pacde                     0                     0                     0
      pmoin                     0                     0                     0
      pnoff                     0                     0                     0
    pvoffcv                     0                     0                     0
    pxrcrg1                     0                     0                     0
    pxrcrg2                     0                     0                     0
    plambda <<NAN, error = 7>> <<NAN, error = 7>> <<NAN, error = 7>>
       pvtl <<NAN, error = 7>> <<NAN, error = 7>> <<NAN, error = 7>>
        pxn <<NAN, error = 7>> <<NAN, error = 7>> <<NAN, error = 7>>
        peu                     0                     0                     0
  pvfbsdoff                     0                     0                     0
 ptvfbsdoff                     0                     0                     0
     ptvoff                     0                     0                     0
      saref              1.44e-06              1.44e-06              1.44e-06
      sbref              1.44e-06              1.44e-06              1.44e-06
       wlod                     0                     0                     0
        ku0               5.9e-08               5.9e-08               5.9e-08
      kvsat                     0                     0                     0
      kvth0              1.76e-08              1.76e-08              1.76e-08
       tku0                     0                     0                     0
    llodku0                     0                     0                     0
    wlodku0                     1                     1                     1
    llodvth                     0                     0                     0
    wlodvth                     1                     1                     1
       lku0                     0                     0                     0
       wku0                     0                     0                     0
       pku0                     0                     0                     0
     lkvth0                     0                     0                     0
     wkvth0               7.3e-07               7.3e-07               7.3e-07
     pkvth0                     0                     0                     0
       stk2                     0                     0                     0
      lodk2                     1                     1                     1
     steta0                     0                     0                     0
    lodeta0                     1                     1                     1
        web                     0                     0                     0
        wec                     0                     0                     0
    kvth0we                     0                     0                     0
       k2we                     0                     0                     0
      ku0we                     0                     0                     0
      scref                 1e-06                 1e-06                 1e-06
     wpemod                     0                     0                     0
   lkvth0we                     0                     0                     0
      lk2we                     0                     0                     0
     lku0we                     0                     0                     0
   wkvth0we                     0                     0                     0
      wk2we                     0                     0                     0
     wku0we                     0                     0                     0
   pkvth0we                     0                     0                     0
      pk2we                     0                     0                     0
     pku0we                     0                     0                     0
       noia                 3e+41                 3e+41                 3e+41
       noib                     0                     0                     0
       noic                     0                     0                     0
      tnoia               2.5e+07               2.5e+07               2.5e+07
      tnoib                     0                     0                     0
      rnoia                  0.69                  0.69                  0.69
      rnoib                  0.34                  0.34                  0.34
      ntnoi                     1                     1                     1
         em               4.1e+07               4.1e+07               4.1e+07
         ef                  0.88                  0.88                  0.88
         af                     1                     1                     1
         kf                     0                     0                     0
    vgs_max                 1e+99                 1e+99                 1e+99
    vgd_max                 1e+99                 1e+99                 1e+99
    vgb_max                 1e+99                 1e+99                 1e+99
    vds_max                 1e+99                 1e+99                 1e+99
    vbs_max                 1e+99                 1e+99                 1e+99
    vbd_max                 1e+99                 1e+99                 1e+99
   vgsr_max                 1e+99                 1e+99                 1e+99
   vgdr_max                 1e+99                 1e+99                 1e+99
   vgbr_max                 1e+99                 1e+99                 1e+99
   vbsr_max                 1e+99                 1e+99                 1e+99
   vbdr_max                 1e+99                 1e+99                 1e+99

 BSIM4v5 models (Berkeley Short Channel IGFET Model-4)
      model xdac2.xdc5.xm2n.xm:sk xdac2.xdc5.xm2p.xm:sk xdac2.xdc5.xm1.xm:sky

     capmod                     2                     2                     2
     diomod                     1                     1                     1
     rdsmod                     0                     0                     0
   trnqsmod                     0                     0                     0
   acnqsmod                     0                     0                     0
     mobmod                     0                     0                     0
   rbodymod                     1                     1                     1
   rgatemod                     0                     0                     0
     permod                     1                     1                     1
     geomod                     0                     0                     0
    rgeomod                     0                     0                     0
    fnoimod                     1                     1                     1
    tnoimod                     1                     1                     1
     igcmod                     0                     0                     0
     igbmod                     0                     0                     0
    tempmod                     0                     0                     0
   paramchk                     1                     1                     1
    binunit                     2                     2                     2
    version                   4.5                   4.5                   4.5
       toxe            4.1953e-09           4.24763e-09           4.18481e-09
       toxp            4.1953e-09           4.24763e-09           4.18481e-09
       toxm              4.23e-09              4.23e-09              4.23e-09
     toxref              4.23e-09              4.23e-09              4.23e-09
       dtox                     0                     0                     0
     epsrox                   3.9                   3.9                   3.9
       cdsc            2.8125e-07            2.8125e-07            2.8125e-07
      cdscb                0.0001                0.0001                0.0001
      cdscd                 1e-10                 1e-10                 1e-10
        cit          -6.39311e-11          -6.39311e-11          -6.39311e-11
    nfactor                2.5373                2.5373                2.5373
         xj               1.5e-07               1.5e-07               1.5e-07
       vsat                172919                172919                172919
         at              -44339.5              -44339.5              -44339.5
         a0                1.1627                1.1627                1.1627
        ags             -0.744608             -0.744608             -0.744608
         a1                     0                     0                     0
         a2              0.467037              0.467037              0.467037
       keta            -0.0172723            -0.0172723            -0.0172723
       nsub                 6e+16                 6e+16                 6e+16
       ndep               1.7e+17               1.7e+17               1.7e+17
        nsd                 1e+20                 1e+20                 1e+20
       phin                     0                     0                     0
      ngate                 1e+23                 1e+23                 1e+23
     gamma1                     0                     0                     0
     gamma2                     0                     0                     0
        vbx                     0                     0                     0
        vbm                    -3                    -3                    -3
         xt              1.55e-07              1.55e-07              1.55e-07
         k1               0.64774               0.64774               0.64774
        kt1             -0.792437             -0.792437             -0.792437
       kt1l                     0                     0                     0
        kt2              0.162602              0.162602              0.162602
         k2            -0.0469552            -0.0469552            -0.0469552
         k3                  3.39                  3.39                  3.39
        k3b                     1                     1                     1
         w0                 1e-08                 1e-08                 1e-08
      dvtp0                     0                     0                     0
      dvtp1                     0                     0                     0
       lpe0                     0                     0                     0
       lpeb                     0                     0                     0
       dvt0                2.4422                2.4422                2.4422
       dvt1               0.16136               0.16136               0.16136
       dvt2              0.026237              0.026237              0.026237
      dvt0w                   0.5                   0.5                   0.5
      dvt1w            1.9281e+06            1.9281e+06            1.9281e+06
      dvt2w                -0.032                -0.032                -0.032
      drout               0.43496               0.43496               0.43496
       dsub                     1                     1                     1
       vth0             -0.187363             -0.178691             -0.185915
         ua          -3.07668e-09          -3.07668e-09          -3.07668e-09
        ua1           1.97265e-09           1.97265e-09           1.97265e-09
         ub           2.61299e-18           2.61299e-18           2.61299e-18
        ub1          -2.95573e-18          -2.95573e-18          -2.95573e-18
         uc           1.60739e-11           1.60739e-11           1.60739e-11
        uc1          -1.64274e-10          -1.64274e-10          -1.64274e-10
         ud                     0                     0                     0
        ud1                     0                     0                     0
         up                     0                     0                     0
         lp                     1                     1                     1
         u0           0.000933531           0.000933531           0.000933531
         eu                  1.67                  1.67                  1.67
        ute             -0.812741             -0.812741             -0.812741
       voff               -0.1819               -0.1819               -0.1819
       minv                     0                     0                     0
      voffl                     0                     0                     0
       tnom                303.15                303.15                303.15
       cgso                 2e-11                 2e-11                 2e-11
       cgdo                 2e-11                 2e-11                 2e-11
       cgbo                 1e-13                 1e-13                 1e-13
      xpart                     0                     0                     0
      delta              0.150991              0.150991              0.150991
        rsh                     1                     1                     1
       rdsw                 484.7                 484.7                 484.7
    rdswmin                     0                     0                     0
        rsw                     0                     0                     0
        rdw                     0                     0                     0
     rdwmin                     0                     0                     0
     rswmin                     0                     0                     0
       prwg                 0.052                 0.052                 0.052
       prwb                   0.1                   0.1                   0.1
        prt                     0                     0                     0
       eta0                   0.2                   0.2                   0.2
       etab              -0.00025              -0.00025              -0.00025
       pclm              0.030097              0.030097              0.030097
    pdiblc1                     0                     0                     0
    pdiblc2           -0.00270378           -0.00270378           -0.00270378
    pdiblcb                -0.025                -0.025                -0.025
     fprout                     0                     0                     0
      pdits                     0                     0                     0
     pditsl                     0                     0                     0
     pditsd                     0                     0                     0
     pscbe1                 8e+08                 8e+08                 8e+08
[...]
         qg           1.34886e-15           1.15203e-15           1.32609e-15
         qb          -1.12038e-15          -8.68086e-16          -1.10924e-15
         qd          -9.14766e-17          -1.13692e-16          -8.68072e-17
         qs          -1.37009e-16          -1.70256e-16           -1.3004e-16
       qinv                     0                     0                     0
       qdef                    -0                    -0                    -0
       gcrg                     0                     0                     0
       gtau                     0                     0                     0

 BSIM4v5: Berkeley Short Channel IGFET Model-4
     device m.xdac1.xmb1.xm.msky1
      model xdac1.xmb1.xm:sky130_
          l               3.5e-07
          w               5.5e-07
          m                     1
         nf                     1
         sa                     0
         sb                     0
         sd                     0
        sca                     0
        scb                     0
        scc                     0
         sc                     0
        min                     0
         ad            1.4575e-13
         as            1.4575e-13
         pd              1.63e-06
         ps              1.63e-06
        nrd                     0
        nrs                     0
        off                     0
       rbdb                    50
       rbsb                    50
       rbpb                    50
       rbps                    50
       rbpd                    50
     delvto                     0
      mulu0                     1
        xgw                     0
      ngcon                     1
   trnqsmod                     0
   acnqsmod                     0
   rbodymod                     1
   rgatemod                     0
     geomod                     0
    rgeomod                     0
       gmbs           4.16024e-06
         gm           3.18383e-05
        gds           3.77501e-06
      vdsat              0.345345
        vth              0.300488
         id           7.08488e-06
        ibd          -1.09806e-16
        ibs           2.75348e-30
        gbd           1.00007e-19
        gbs           3.11247e-15
       isub           4.57634e-19
      igidl                     0
      igisl                     0
        igs                     0
        igd                     0
        igb                     0
       igcs                     0
       igcd                     0
        vbs           1.33227e-15
        vgs              0.703103
        vds              0.703103
        cgg           1.20699e-15
        cgs          -1.08326e-15
        cgd          -5.87319e-19
        cbg           -2.3139e-16
        cbd          -4.49571e-19
        cbs          -1.27734e-16
        cdg          -3.90865e-16
        cdd           8.20446e-19
        cds           4.84796e-16
        csg          -5.84736e-16
        csd           2.16444e-19
        css           7.26196e-16
        cgb          -1.23146e-16
        cdb          -9.47509e-17
        csb          -1.41676e-16
        cbb           3.59573e-16
      capbd           2.60842e-16
      capbs           3.41491e-16
         qg           1.13637e-15
         qb          -8.58176e-16
         qd          -1.11399e-16
         qs          -1.66791e-16
       qinv                     0
       qdef                    -0
       gcrg                     0
       gtau                     0

 Capacitor: Fixed capacitor
     device       c.xdac2.xdc6.c2       c.xdac2.xdc6.c1       c.xdac2.xdc5.c2
      model                     C                     C                     C
capacitance               6.4e-13               6.4e-13               3.2e-13
      dtemp                     0                     0                     0
     bv_max                 1e+99                 1e+99                 1e+99
          i                     0                     0                     0
          p                    -0                    -0                    -0

 Capacitor: Fixed capacitor
     device       c.xdac2.xdc5.c1       c.xdac2.xdc4.c2       c.xdac2.xdc4.c1
      model                     C                     C                     C
capacitance               3.2e-13               1.6e-13               1.6e-13
      dtemp                     0                     0                     0
     bv_max                 1e+99                 1e+99                 1e+99
          i                     0                     0                     0
          p                    -0                    -0                    -0

 Capacitor: Fixed capacitor
     device       c.xdac2.xdc3.c2       c.xdac2.xdc3.c1       c.xdac2.xdc2.c2
      model                     C                     C                     C
capacitance                 8e-14                 8e-14                 4e-14
      dtemp                     0                     0                     0
     bv_max                 1e+99                 1e+99                 1e+99
          i                     0                     0                     0
          p                    -0                    -0                    -0

 Capacitor: Fixed capacitor
     device       c.xdac2.xdc2.c1       c.xdac2.xdc1.c2       c.xdac2.xdc1.c1
      model                     C                     C                     C
capacitance                 4e-14                 2e-14                 2e-14
      dtemp                     0                     0                     0
     bv_max                 1e+99                 1e+99                 1e+99
          i                     0                     0                     0
          p                    -0                    -0                    -0

 Capacitor: Fixed capacitor
     device       c.xdac1.xdc6.c2       c.xdac1.xdc6.c1       c.xdac1.xdc5.c2
      model                     C                     C                     C
capacitance               6.4e-13               6.4e-13               3.2e-13
      dtemp                     0                     0                     0
     bv_max                 1e+99                 1e+99                 1e+99
          i                     0                     0                     0
          p                    -0                    -0                    -0

 Capacitor: Fixed capacitor
     device       c.xdac1.xdc5.c1       c.xdac1.xdc4.c2       c.xdac1.xdc4.c1
      model                     C                     C                     C
capacitance               3.2e-13               1.6e-13               1.6e-13
      dtemp                     0                     0                     0
     bv_max                 1e+99                 1e+99                 1e+99
          i                     0                     0                     0
          p                    -0                    -0                    -0

 Capacitor: Fixed capacitor
     device       c.xdac1.xdc3.c2       c.xdac1.xdc3.c1       c.xdac1.xdc2.c2
      model                     C                     C                     C
capacitance                 8e-14                 8e-14                 4e-14
      dtemp                     0                     0                     0
     bv_max                 1e+99                 1e+99                 1e+99
          i                     0                     0                     0
          p                    -0                    -0                    -0

 Capacitor: Fixed capacitor
     device       c.xdac1.xdc2.c1       c.xdac1.xdc1.c2       c.xdac1.xdc1.c1
      model                     C                     C                     C
capacitance                 4e-14                 2e-14                 2e-14
      dtemp                     0                     0                     0
     bv_max                 1e+99                 1e+99                 1e+99
          i                     0                     0                     0
          p                    -0                    -0                    -0

 Resistor: Simple linear resistor
     device                   rl2                   rl1                  rln2
      model                     R                     R                     R
 resistance                  1000                  1000                  0.02
         ac                  1000                  1000                  0.02
      dtemp                     0                     0                     0
     bv_max                 1e+99                 1e+99                 1e+99
      noisy                     1                     1                     1
          i                     0           8.78717e-08           6.92331e-15
          p                     0           7.72143e-12           9.58645e-31

 Resistor: Simple linear resistor
     device                  rlp2                  rln1                  rlp1
      model                     R                     R                     R
 resistance                  0.02                  0.02                  0.02
         ac                  0.02                  0.02                  0.02
      dtemp                     0                     0                     0
     bv_max                 1e+99                 1e+99                 1e+99
      noisy                     1                     1                     1
          i           0.000399503            6.9235e-15           0.000439358
          p           3.19205e-09           9.58696e-31           3.86072e-09

 VCVS: Voltage controlled voltage source
     device                    e2                    e1
          i                     0          -8.78717e-08
          v           7.99006e-05           8.78717e-05
          p                     0          -7.72143e-12

 Vsource: Independent voltage source
     device                 vbb26                 vbb25                 vbb24
         dc                     0                     0                     0
      acmag                     0                     0                     0
      pulse         -         -         -
        sin         -         -         -
        exp         -         -         -
        pwl         -         -         -
       sffm         -         -         -
         am         -         -         -
    trnoise         -         -         -
   trrandom         -         -         -
    portnum                     0                     0                     0
         z0                     0                     0                     0
        pwr                     0                     0                     0
       freq                     0                     0                     0
      phase                     0                     0                     0
          i                     0                     0                     0
          p                     0                     0                     0

 Vsource: Independent voltage source
     device                 vbb23                 vbb22                 vbb21
         dc                     0                     0                     0
      acmag                     0                     0                     0
      pulse         -         -         -
        sin         -         -         -
        exp         -         -         -
        pwl         -         -         -
       sffm         -         -         -
         am         -         -         -
    trnoise         -         -         -
   trrandom         -         -         -
    portnum                     0                     0                     0
         z0                     0                     0                     0
        pwr                     0                     0                     0
       freq                     0                     0                     0
      phase                     0                     0                     0
          i                     0                     0                     0
          p                     0                     0                     0

 Vsource: Independent voltage source
     device                  vb26                  vb25                  vb24
         dc                   1.5                   1.5                   1.5
      acmag                     0                     0                     0
      pulse         -         -         -
        sin         -         -         -
        exp         -         -         -
        pwl         -         -         -
       sffm         -         -         -
         am         -         -         -
    trnoise         -         -         -
   trrandom         -         -         -
    portnum                     0                     0                     0
         z0                     0                     0                     0
        pwr                     0                     0                     0
       freq                     0                     0                     0
      phase                     0                     0                     0
          i                     0                     0                     0
          p                     0                     0                     0

 Vsource: Independent voltage source
     device                  vb23                  vb22                  vb21
         dc                   1.5                   1.5                   1.5
      acmag                     0                     0                     0
      pulse         -         -         -
        sin         -         -         -
        exp         -         -         -
        pwl         -         -         -
       sffm         -         -         -
         am         -         -         -
    trnoise         -         -         -
   trrandom         -         -         -
    portnum                     0                     0                     0
         z0                     0                     0                     0
        pwr                     0                     0                     0
       freq                     0                     0                     0
      phase                     0                     0                     0
          i                     0                     0                     0
          p                     0                     0                     0

 Vsource: Independent voltage source
     device                 vbb16                 vbb15                 vbb14
         dc                     0                     0                     0
      acmag                     0                     0                     0
      pulse         -         -         -
        sin         -         -         -
        exp         -         -         -
        pwl         -         -         -
       sffm         -         -         -
         am         -         -         -
    trnoise         -         -         -
   trrandom         -         -         -
    portnum                     0                     0                     0
         z0                     0                     0                     0
        pwr                     0                     0                     0
       freq                     0                     0                     0
      phase                     0                     0                     0
          i                     0                     0                     0
          p                     0                     0                     0

 Vsource: Independent voltage source
     device                 vbb13                 vbb12                 vbb11
         dc                     0                     0                     0
      acmag                     0                     0                     0
      pulse         -         -         -
        sin         -         -         -
        exp         -         -         -
        pwl         -         -         -
       sffm         -         -         -
         am         -         -         -
    trnoise         -         -         -
   trrandom         -         -         -
    portnum                     0                     0                     0
         z0                     0                     0                     0
        pwr                     0                     0                     0
       freq                     0                     0                     0
      phase                     0                     0                     0
          i                     0                     0                     0
          p                     0                     0                     0

 Vsource: Independent voltage source
     device                  vb16                  vb15                  vb14
         dc                   1.5                   1.5                   1.5
      acmag                     0                     0                     0
      pulse         -         -         -
        sin         -         -         -
        exp         -         -         -
        pwl         -         -         -
       sffm         -         -         -
         am         -         -         -
    trnoise         -         -         -
   trrandom         -         -         -
    portnum                     0                     0                     0
         z0                     0                     0                     0
        pwr                     0                     0                     0
       freq                     0                     0                     0
      phase                     0                     0                     0
          i                     0                     0                     0
          p                     0                     0                     0

 Vsource: Independent voltage source
     device                  vb13                  vb12                  vb11
         dc                   1.5                   1.5                   1.5
      acmag                     0                     0                     0
      pulse         -         -         -
        sin         -         -         -
        exp         -         -         -
        pwl         -         -         -
       sffm         -         -         -
         am         -         -         -
    trnoise         -         -         -
   trrandom         -         -         -
    portnum                     0                     0                     0
         z0                     0                     0                     0
        pwr                     0                     0                     0
       freq                     0                     0                     0
      phase                     0                     0                     0
          i                     0                     0                     0
          p                     0                     0                     0

 Vsource: Independent voltage source
     device                   vdd
         dc                   1.5
      acmag                     0
      pulse         -
        sin         -
        exp         -
        pwl         -
       sffm         -
         am         -
    trnoise         -
   trrandom         -
    portnum                     0
         z0                     0
        pwr                     0
       freq                     0
      phase                     0
          i          -0.000853529
          p           -0.00128029


Total analysis time (seconds) = 0.003

Total elapsed time (seconds) = 0.069 

Total DRAM available = 31814.051 MB.
DRAM currently available =  890.367 MB.
Maximum ngspice program size =   30.605 MB.
Current ngspice program size =   14.500 MB.

Shared ngspice pages =   11.250 MB.
Text (code) pages =    6.156 MB.
Stack = 0 bytes.
Library pages =   11.371 MB.

